<?xml version="1.0" encoding="UTF-8"?>

<!-- generated on 08/19/20 17:17:33 by Eclipse SUMO netedit Version 1.6.0
<configuration xmlns:xsi="http://www.w3.org/2001/XMLSchema-instance" xsi:noNamespaceSchemaLocation="http://sumo.dlr.de/xsd/netconvertConfiguration.xsd">

    <input>
        <sumo-net-file value="D:\else\DR_CHN_Merging_ZS-cd\DR_CHN_Merging_ZS\map.net.xml"/>
    </input>

    <output>
        <output-file value="D:\else\DR_CHN_Merging_ZS-cd\DR_CHN_Merging_ZS\map2.net.xml"/>
    </output>

    <processing>
        <geometry.min-radius.fix.railways value="false"/>
        <geometry.max-grade.fix value="false"/>
        <offset.disable-normalization value="true"/>
        <lefthand value="false"/>
    </processing>

    <junctions>
        <no-internal-links value="true"/>
        <no-turnarounds value="true"/>
        <junctions.corner-detail value="5"/>
        <junctions.limit-turn-speed value="5.5"/>
        <rectangular-lane-cut value="false"/>
    </junctions>

    <pedestrian>
        <walkingareas value="false"/>
    </pedestrian>

    <report>
        <aggregate-warnings value="5"/>
    </report>

</configuration>
-->

<net version="1.6" junctionCornerDetail="5" limitTurnSpeed="5.50" xmlns:xsi="http://www.w3.org/2001/XMLSchema-instance" xsi:noNamespaceSchemaLocation="http://sumo.dlr.de/xsd/net_file.xsd">

    <location netOffset="0.00,0.00" convBoundary="994.50,940.43,1147.53,972.06" origBoundary="-10000000000.00,-10000000000.00,10000000000.00,10000000000.00" projParameter="!"/>

    <edge id="gneE36" from="gneJ58" to="gneJ59" priority="-1" shape="1146.82,957.44 1129.99,953.96 1118.95,951.70 1108.59,950.48 1095.02,949.48 1089.44,948.95 1080.51,948.55 1063.50,949.00 1046.28,949.94 1030.08,952.19 1021.96,953.76 1009.98,956.39 996.72,960.24">
        <lane id="gneE36_0" index="0" speed="13.89" length="152.00" width="4.00" shape="1146.42,959.40 1129.59,955.92 1118.63,953.68 1108.40,952.47 1094.85,951.47 1089.30,950.95 1080.49,950.55 1063.58,951.00 1046.47,951.93 1030.41,954.16 1022.36,955.72 1010.47,958.33 997.28,962.16"/>
    </edge>
    <edge id="gneE37" from="gneJ60" to="gneJ61" priority="-1" shape="1147.41,961.71 1142.51,960.56 1135.57,959.39 1129.81,958.20 1123.95,956.99 1118.32,955.73 1108.46,954.45 1095.40,953.51 1089.16,952.95 1084.81,952.98 1077.99,952.70 1070.38,952.90 1063.34,953.03 1058.17,953.41 1048.97,953.87 1045.94,954.05 1037.83,955.23 1031.57,956.12 1023.68,957.66 1011.60,960.26 1000.64,963.32 997.88,964.22">
        <lane id="gneE37_0" index="0" speed="13.89" length="151.47" width="4.20" shape="1146.93,963.75 1142.10,962.62 1135.18,961.45 1129.39,960.26 1123.51,959.04 1117.95,957.80 1108.25,956.54 1095.23,955.60 1089.07,955.05 1084.77,955.08 1077.97,954.80 1070.43,955.00 1063.44,955.13 1058.30,955.51 1049.08,955.97 1046.15,956.14 1038.13,957.31 1031.92,958.19 1024.10,959.72 1012.10,962.30 1001.25,965.33 998.53,966.22"/>
    </edge>
    <edge id="gneE38" from="gneJ63" to="gneJ64" priority="-1" shape="1146.81,968.53 1136.69,966.16 1126.46,964.01 1119.75,962.63 1115.33,961.85 1107.50,960.46 1099.57,959.55 1097.24,959.18 1093.95,958.74 1089.38,958.20 1084.03,957.49 1080.51,957.37 1075.93,957.31 1067.22,957.13">
        <lane id="gneE38_0" index="0" speed="13.89" length="72.23" width="3.70" shape="1146.39,970.33 1136.29,967.97 1126.08,965.82 1119.40,964.45 1115.01,963.67 1107.23,962.29 1099.32,961.38 1096.98,961.01 1093.72,960.58 1089.15,960.04 1084.09,959.36"/>
    </edge>
    <edge id="gneE39" from="gneJ65" to="gneJ64" priority="-1" shape="1146.38,972.06 1139.46,970.65 1129.11,968.27 1113.89,965.30 1106.86,964.24 1096.62,962.93 1089.12,961.88 1080.58,960.92 1074.13,959.59 1069.26,958.52 1067.22,957.13">
        <lane id="gneE39_0" index="0" speed="13.89" length="71.48" width="3.00" shape="1146.08,973.53 1139.14,972.12 1128.80,969.74 1113.63,966.78 1106.65,965.73 1096.42,964.42 1088.93,963.37 1083.14,962.72"/>
    </edge>
    <edge id="gneE41" from="gneJ64" to="gneJ69" priority="-1" shape="1067.22,957.13 1059.02,957.03 1049.82,957.84 1038.55,959.44 1031.82,960.51 1024.43,961.99 1022.50,962.40 1011.98,964.57 998.59,968.28">
        <lane id="gneE41_0" index="0" speed="13.89" length="79.00" width="4.40" shape="1067.61,959.33 1059.10,959.23 1050.07,960.03 1038.88,961.62 1032.21,962.68 1024.87,964.15 1022.95,964.55 1012.50,966.71 999.18,970.40"/>
    </edge>
    <edge id="gneE43" from="gneJ74" to="gneJ75" priority="-1" shape="996.64,958.94 1001.34,957.59 1005.86,955.96 1022.01,952.44 1029.56,950.96 1034.94,950.12 1044.65,948.73 1056.58,947.63 1063.73,947.37 1073.41,947.40 1081.20,947.21 1088.54,947.50 1090.79,947.75 1098.09,948.31 1110.14,949.74 1119.46,951.05 1128.25,952.17 1147.09,956.09">
        <lane id="gneE43_0" index="0" speed="13.89" length="152.36" width="3.60" shape="996.14,957.20 1000.79,955.88 1005.36,954.23 1021.65,950.68 1029.25,949.19 1034.67,948.34 1044.44,946.94 1056.46,945.83 1063.70,945.57 1073.39,945.60 1081.21,945.41 1088.68,945.70 1090.96,945.96 1098.26,946.52 1110.37,947.95 1119.70,949.27 1128.55,950.39 1147.46,954.33"/>
    </edge>
    <edge id="gneE44" from="gneJ76" to="gneJ77" priority="-1" shape="995.57,955.56 1005.14,952.55 1007.80,951.81 1021.28,948.98 1028.69,947.32 1033.91,946.49 1044.04,945.10 1049.78,944.56 1058.38,943.85 1063.13,943.82 1068.45,943.78 1080.23,943.75 1088.83,943.96 1108.07,945.74">
        <lane id="gneE44_0" index="0" speed="13.89" length="113.84" shape="995.09,954.03 1004.67,951.02 1007.42,950.25 1020.94,947.42 1028.39,945.75 1033.68,944.91 1043.86,943.51 1049.64,942.97 1058.31,942.25 1063.12,942.22 1068.44,942.18 1080.25,942.15 1088.09,942.34"/>
    </edge>
    <edge id="gneE45" from="gneJ78" to="gneJ77" priority="-1" shape="994.50,952.51 1009.26,948.00 1019.92,946.00 1027.58,944.23 1040.51,942.20 1056.20,940.69 1063.11,940.64 1070.28,940.44 1080.45,940.43 1088.42,940.65 1092.80,941.25 1096.15,942.03 1099.90,942.89 1108.07,945.74">
        <lane id="gneE45_0" index="0" speed="13.89" length="115.51" width="4.40" shape="993.86,950.41 1008.73,945.86 1019.47,943.85 1027.16,942.07 1040.23,940.02 1056.09,938.49 1063.07,938.44 1070.25,938.24 1080.48,938.23 1088.60,938.45 1088.98,938.51"/>
    </edge>
    <edge id="gneE46" from="gneJ77" to="gneJ81" priority="-1" shape="1108.07,945.74 1109.99,946.14 1119.65,947.36 1137.94,950.44 1147.53,952.39">
        <lane id="gneE46_0" index="0" speed="13.89" length="40.03" width="3.70" shape="1114.07,944.79 1119.92,945.53 1138.28,948.62 1147.90,950.58"/>
    </edge>

    <junction id="gneJ58" type="dead_end" x="1146.82" y="957.44" incLanes="" intLanes="" shape="1146.82,957.44 1146.01,961.36"/>
    <junction id="gneJ59" type="dead_end" x="996.72" y="960.24" incLanes="gneE36_0" intLanes="" shape="997.84,964.08 996.72,960.24"/>
    <junction id="gneJ60" type="dead_end" x="1147.41" y="961.71" incLanes="" intLanes="" shape="1147.41,961.71 1146.45,965.80"/>
    <junction id="gneJ61" type="dead_end" x="997.88" y="964.22" incLanes="gneE37_0" intLanes="" shape="999.18,968.21 997.88,964.22"/>
    <junction id="gneJ63" type="dead_end" x="1146.81" y="968.53" incLanes="" intLanes="" shape="1146.81,968.53 1145.97,972.13"/>
    <junction id="gneJ64" type="priority" x="1067.22" y="957.13" incLanes="gneE39_0 gneE38_0" intLanes="" shape="1082.24,964.13 1084.04,961.31 1084.13,957.50 1080.56,957.10 1077.99,956.94 1075.86,956.95 1073.73,957.03 1071.13,957.12 1067.64,957.14 1067.59,961.53 1070.74,961.70 1073.05,962.06 1074.93,962.55 1076.81,963.10 1079.11,963.65">
        <request index="0" response="00" foes="10"/>
        <request index="1" response="01" foes="01"/>
    </junction>
    <junction id="gneJ65" type="dead_end" x="1146.38" y="972.06" incLanes="" intLanes="" shape="1146.38,972.06 1145.78,975.00"/>
    <junction id="gneJ69" type="dead_end" x="998.59" y="968.28" incLanes="gneE41_0" intLanes="" shape="999.76,972.52 998.59,968.28"/>
    <junction id="gneJ74" type="dead_end" x="996.64" y="958.94" incLanes="" intLanes="" shape="996.64,958.94 995.65,955.47"/>
    <junction id="gneJ75" type="dead_end" x="1147.09" y="956.09" incLanes="gneE43_0" intLanes="" shape="1147.82,952.57 1147.09,956.09"/>
    <junction id="gneJ76" type="dead_end" x="995.57" y="955.56" incLanes="" intLanes="" shape="995.57,955.56 994.61,952.51"/>
    <junction id="gneJ77" type="priority" x="1108.07" y="945.74" incLanes="gneE45_0 gneE44_0" intLanes="" shape="1113.69,946.61 1114.45,942.97 1109.09,942.05 1105.21,940.94 1102.07,939.73 1098.94,938.51 1095.07,937.37 1089.71,936.39 1088.25,940.65 1087.94,943.94 1093.45,944.13 1097.51,944.41 1100.85,944.78 1104.18,945.26 1108.22,945.87">
        <request index="0" response="00" foes="10"/>
        <request index="1" response="01" foes="01"/>
    </junction>
    <junction id="gneJ78" type="dead_end" x="994.50" y="952.51" incLanes="" intLanes="" shape="994.50,952.51 993.21,948.30"/>
    <junction id="gneJ81" type="dead_end" x="1147.53" y="952.39" incLanes="gneE46_0" intLanes="" shape="1148.27,948.76 1147.53,952.39"/>

    <connection from="gneE38" to="gneE41" fromLane="0" toLane="0" dir="s" state="m"/>
    <connection from="gneE39" to="gneE41" fromLane="0" toLane="0" dir="s" state="M"/>
    <connection from="gneE44" to="gneE46" fromLane="0" toLane="0" dir="s" state="m"/>
    <connection from="gneE45" to="gneE46" fromLane="0" toLane="0" dir="s" state="M"/>

</net>
