<?xml version="1.0" encoding="UTF-8"?>

<!-- generated on Wed Apr 28 01:45:03 2021 by Eclipse SUMO netconvert Version 1.8.0
<configuration xmlns:xsi="http://www.w3.org/2001/XMLSchema-instance" xsi:noNamespaceSchemaLocation="http://sumo.dlr.de/xsd/netconvertConfiguration.xsd">

    <input>
        <sumo-net-file value="/NAS2020/Workspaces/DRLGroup/zbzhu/SMARTS_Imitation/smarts-imitation/smarts_imitation/../interaction_dataset/scenarios/interaction_dataset_merging/map.net.xml"/>
    </input>

    <output>
        <output-file value="/NAS2020/Workspaces/DRLGroup/zbzhu/SMARTS_Imitation/smarts-imitation/smarts_imitation/../interaction_dataset/scenarios/interaction_dataset_merging/shifted_map-AUTOGEN.net.xml"/>
    </output>

    <processing>
        <geometry.min-radius.fix.railways value="false"/>
        <geometry.max-grade.fix value="false"/>
        <offset.disable-normalization value="false"/>
        <lefthand value="false"/>
    </processing>

    <junctions>
        <no-internal-links value="true"/>
        <no-turnarounds value="true"/>
        <junctions.corner-detail value="5"/>
        <junctions.limit-turn-speed value="5.5"/>
        <rectangular-lane-cut value="false"/>
    </junctions>

    <pedestrian>
        <walkingareas value="false"/>
    </pedestrian>

    <report>
        <aggregate-warnings value="5"/>
    </report>

</configuration>
-->

<net version="1.6" junctionCornerDetail="5" limitTurnSpeed="5.50" xmlns:xsi="http://www.w3.org/2001/XMLSchema-instance" xsi:noNamespaceSchemaLocation="http://sumo.dlr.de/xsd/net_file.xsd">

    <location netOffset="-994.50,-940.58" convBoundary="0.00,0.00,153.03,31.48" origBoundary="-10000000000.00,-10000000000.00,10000000000.00,10000000000.00" projParameter="!"/>

    <edge id="gneE36" from="gneJ58" to="gneJ59" priority="-1" shape="152.32,16.86 135.49,13.38 124.45,11.12 114.09,9.90 100.52,8.90 94.94,8.37 86.01,7.97 69.00,8.42 51.78,9.36 35.58,11.61 27.46,13.18 15.48,15.81 2.22,19.66">
        <lane id="gneE36_0" index="0" speed="13.89" length="152.00" width="4.00" shape="151.92,18.82 135.09,15.34 124.13,13.10 113.90,11.89 100.35,10.89 94.80,10.37 85.99,9.97 69.08,10.42 51.97,11.35 35.91,13.58 27.86,15.14 15.97,17.75 2.78,21.58"/>
    </edge>
    <edge id="gneE37" from="gneJ60" to="gneJ61" priority="-1" shape="152.91,21.13 148.01,19.98 141.07,18.81 135.31,17.62 129.45,16.41 123.82,15.15 113.96,13.87 100.90,12.93 94.66,12.37 90.31,12.40 83.49,12.12 75.88,12.32 68.84,12.45 63.67,12.83 54.47,13.29 51.44,13.47 43.33,14.65 37.07,15.54 29.18,17.08 17.10,19.68 6.14,22.74 3.38,23.64">
        <lane id="gneE37_0" index="0" speed="13.89" length="151.46" width="4.20" shape="152.43,23.17 147.60,22.04 140.68,20.87 134.89,19.68 129.01,18.46 123.45,17.22 113.75,15.96 100.73,15.02 94.57,14.47 90.27,14.50 83.47,14.22 75.93,14.42 68.94,14.55 63.80,14.93 54.58,15.39 51.65,15.56 43.63,16.73 37.42,17.61 29.60,19.14 17.60,21.72 6.75,24.75 4.03,25.64"/>
    </edge>
    <edge id="gneE38" from="gneJ63" to="gneJ64" priority="-1" shape="152.31,27.95 142.19,25.58 131.96,23.43 125.25,22.05 120.83,21.27 113.00,19.88 105.07,18.97 102.74,18.60 99.45,18.16 94.93,17.60 89.57,16.89 85.54,16.42 78.74,15.92 69.16,16.17 54.89,17.14">
        <lane id="gneE38_0" index="0" speed="13.89" length="103.45" width="3.70" shape="151.89,29.75 141.79,27.39 131.58,25.24 124.90,23.87 120.51,23.09 112.73,21.71 104.82,20.80 102.48,20.43 99.22,20.00 94.69,19.43 89.34,18.73 85.36,18.26 78.70,17.77 69.25,18.02 61.67,18.53"/>
    </edge>
    <edge id="gneE39" from="gneJ65" to="gneJ64" priority="-1" shape="151.88,31.48 144.96,30.07 134.61,27.69 119.39,24.72 112.36,23.66 102.16,22.26 94.69,21.24 87.55,20.27 77.99,19.50 60.87,19.18 54.89,17.14">
        <lane id="gneE39_0" index="0" speed="13.89" length="94.05" width="3.40" shape="151.54,33.15 144.60,31.73 134.26,29.35 119.10,26.40 112.12,25.34 101.93,23.94 94.46,22.92 87.37,21.96 77.91,21.20 61.68,20.90"/>
    </edge>
    <edge id="gneE41" from="gneJ64" to="gneJ69" priority="-1" shape="54.89,17.14 52.35,17.41 48.66,17.82 43.94,18.51 37.22,19.50 29.93,20.95 17.29,23.63 4.09,27.70">
        <lane id="gneE41_0" index="0" speed="13.89" length="56.92" width="4.40" shape="55.27,19.31 52.59,19.60 48.94,20.00 44.26,20.69 37.60,21.67 30.37,23.11 17.84,25.76 4.74,29.80"/>
    </edge>
    <edge id="gneE43" from="gneJ74" to="gneJ75" priority="-1" shape="2.14,18.36 6.84,17.01 11.36,15.38 27.51,11.86 35.06,10.38 40.44,9.54 50.15,8.15 62.08,7.05 69.23,6.79 78.91,6.82 86.70,6.63 94.04,6.92 96.29,7.17 103.59,7.73 115.64,9.16 124.96,10.47 133.75,11.59 152.59,15.51">
        <lane id="gneE43_0" index="0" speed="13.89" length="152.36" width="3.60" shape="1.64,16.63 6.29,15.30 10.86,13.65 27.15,10.10 34.75,8.61 40.17,7.76 49.94,6.36 61.96,5.25 69.20,4.99 78.89,5.02 86.71,4.83 94.18,5.12 96.46,5.38 103.76,5.94 115.87,7.37 125.20,8.69 134.05,9.81 152.96,13.75"/>
    </edge>
    <edge id="gneE44" from="gneJ76" to="gneJ77" priority="-1" shape="1.07,14.98 10.64,11.97 13.30,11.23 26.78,8.40 34.19,6.74 39.41,5.91 49.54,4.52 55.28,3.98 63.88,3.27 68.63,3.24 74.85,3.29 85.99,3.20 94.48,3.45 106.57,4.46 112.55,5.17 121.03,6.08">
        <lane id="gneE44_0" index="0" speed="13.89" length="121.35" width="3.30" shape="0.57,13.41 10.16,10.39 12.91,9.63 26.43,6.79 33.88,5.12 39.17,4.28 49.35,2.88 55.14,2.34 63.81,1.62 68.63,1.59 74.85,1.64 86.01,1.55 94.57,1.80 106.74,2.82 112.73,3.53 118.97,4.20"/>
    </edge>
    <edge id="gneE45" from="gneJ78" to="gneJ77" priority="-1" shape="0.00,11.93 14.76,7.42 25.42,5.42 33.08,3.65 46.01,1.62 61.70,0.11 68.61,0.06 75.84,0.01 85.98,0.00 93.95,0.22 99.49,0.63 105.14,1.21 110.65,1.77 121.03,6.08">
        <lane id="gneE45_0" index="0" speed="13.89" length="123.26" width="4.40" shape="-0.64,9.83 14.23,5.28 24.97,3.27 32.66,1.49 45.73,-0.56 61.59,-2.09 68.59,-2.14 75.83,-2.19 86.01,-2.20 94.06,-1.98 99.68,-1.56 105.36,-0.98 111.19,-0.39 119.13,2.91"/>
    </edge>
    <edge id="gneE46" from="gneJ77" to="gneJ81" priority="-1" shape="121.03,6.08 127.29,7.27 132.84,8.02 143.44,9.98 153.03,11.81">
        <lane id="gneE46_0" index="0" speed="13.89" length="32.52" width="3.90" shape="122.18,4.31 127.60,5.34 133.15,6.09 143.80,8.06 153.40,9.89"/>
    </edge>

    <junction id="gneJ58" type="dead_end" x="152.32" y="16.86" incLanes="" intLanes="" shape="152.32,16.86 151.51,20.78"/>
    <junction id="gneJ59" type="dead_end" x="2.22" y="19.66" incLanes="gneE36_0" intLanes="" shape="3.34,23.50 2.22,19.66"/>
    <junction id="gneJ60" type="dead_end" x="152.91" y="21.13" incLanes="" intLanes="" shape="152.91,21.13 151.95,25.22"/>
    <junction id="gneJ61" type="dead_end" x="3.38" y="23.64" incLanes="gneE37_0" intLanes="" shape="4.68,27.63 3.38,23.64"/>
    <junction id="gneJ63" type="dead_end" x="152.31" y="27.95" incLanes="" intLanes="" shape="152.31,27.95 151.47,31.55"/>
    <junction id="gneJ64" type="priority" x="54.89" y="17.14" incLanes="gneE39_0 gneE38_0" intLanes="" shape="61.80,19.50 61.44,16.84 55.13,17.41 55.44,21.58 58.43,21.87 61.56,22.25" customShape="1">
        <request index="0" response="00" foes="10"/>
        <request index="1" response="01" foes="01"/>
    </junction>
    <junction id="gneJ65" type="dead_end" x="151.88" y="31.48" incLanes="" intLanes="" shape="151.88,31.48 151.20,34.81"/>
    <junction id="gneJ69" type="dead_end" x="4.09" y="27.70" incLanes="gneE41_0" intLanes="" shape="5.39,31.90 4.09,27.70"/>
    <junction id="gneJ74" type="dead_end" x="2.14" y="18.36" incLanes="" intLanes="" shape="2.14,18.36 1.15,14.90"/>
    <junction id="gneJ75" type="dead_end" x="152.59" y="15.51" incLanes="gneE43_0" intLanes="" shape="153.32,11.99 152.59,15.51"/>
    <junction id="gneJ76" type="dead_end" x="1.07" y="14.98" incLanes="" intLanes="" shape="1.07,14.98 0.08,11.83"/>
    <junction id="gneJ77" type="priority" x="121.03" y="6.08" incLanes="gneE45_0 gneE44_0" intLanes="" shape="121.81,6.23 122.54,2.40 121.32,1.95 120.94,1.65 120.57,1.33 120.10,0.99 119.42,0.65 118.77,5.84">
        <request index="0" response="00" foes="10"/>
        <request index="1" response="01" foes="01"/>
    </junction>
    <junction id="gneJ78" type="dead_end" x="0.00" y="11.93" incLanes="" intLanes="" shape="0.00,11.93 -1.29,7.72"/>
    <junction id="gneJ81" type="dead_end" x="153.03" y="11.81" incLanes="gneE46_0" intLanes="" shape="153.76,7.98 153.03,11.81"/>

    <connection from="gneE38" to="gneE41" fromLane="0" toLane="0" dir="s" state="m"/>
    <connection from="gneE39" to="gneE41" fromLane="0" toLane="0" dir="s" state="M"/>
    <connection from="gneE44" to="gneE46" fromLane="0" toLane="0" dir="s" state="m"/>
    <connection from="gneE45" to="gneE46" fromLane="0" toLane="0" dir="s" state="M"/>

</net>
